CPDS_validation_cosim/Distribution/Bus11/IEEE34Bus/ieee34-1_Power_elem_kVA.txt

CIRCUIT ELEMENT POWER FLOW

(Power Flow into element from indicated Bus)

Power Delivery Elements

  Bus     Phase     kW     +j   kvar         kVA         PF

ELEMENT = "Vsource.SOURCE"
SOURCEBUS     1      -571.4 +j   -133.7      586.8       0.9737
SOURCEBUS     2      -572.8 +j    -33.9      573.8       0.9983
SOURCEBUS     3      -658.6 +j    -85.0      664.0       0.9918
   TERMINAL TOTAL . -1802.7 +j   -252.6     1820.3       0.9903
SOURCEBUS     0         0.0 +j      0.0        0.0       1.0000
SOURCEBUS     0         0.0 +j      0.0        0.0       1.0000
SOURCEBUS     0         0.0 +j      0.0        0.0       1.0000
   TERMINAL TOTAL .     0.0 +j      0.0        0.0       1.0000

ELEMENT = "Transformer.SUBXF"
SOURCEBUS     1       571.4 +j    133.7      586.8       0.9737
SOURCEBUS     2       572.8 +j     33.9      573.8       0.9983
SOURCEBUS     3       658.6 +j     85.0      664.0       0.9918
SOURCEBUS     0         0.0 +j      0.0        0.0       1.0000
   TERMINAL TOTAL .  1802.7 +j    252.6     1820.3       0.9903
800           1      -630.7 +j   -148.3      647.9       0.9735
800           2      -554.3 +j    -75.0      559.4       0.9910
800           3      -617.7 +j    -29.3      618.4       0.9989
800           0         0.0 +j      0.0        0.0       1.0000
   TERMINAL TOTAL . -1802.7 +j   -252.6     1820.3       0.9903

ELEMENT = "Line.L1"
800           1       630.7 +j    148.3      647.9       0.9735
800           2       554.3 +j     75.0      559.4       0.9910
800           3       617.7 +j     29.3      618.4       0.9989
   TERMINAL TOTAL .  1802.7 +j    252.6     1820.3       0.9903
802           1      -629.7 +j   -148.3      646.9       0.9734
802           2      -553.6 +j    -75.1      558.6       0.9909
802           3      -616.8 +j    -29.2      617.5       0.9989
   TERMINAL TOTAL . -1800.0 +j   -252.6     1817.7       0.9903

ELEMENT = "Line.L2"
802           1       629.7 +j    148.3      646.9       0.9734
802           2       538.6 +j     67.6      542.8       0.9922
802           3       604.3 +j     22.2      604.7       0.9993
   TERMINAL TOTAL .  1772.5 +j    238.1     1788.5       0.9911
806           1      -629.0 +j   -148.3      646.2       0.9733
806           2      -538.1 +j    -67.7      542.3       0.9922
806           3      -603.7 +j    -22.2      604.1       0.9993
   TERMINAL TOTAL . -1770.8 +j   -238.2     1786.7       0.9911

ELEMENT = "Line.L3"
806           1       629.0 +j    148.3      646.2       0.9733
806           2       523.1 +j     60.2      526.5       0.9934
806           3       591.2 +j     15.2      591.4       0.9997
   TERMINAL TOTAL .  1743.3 +j    223.7     1757.6       0.9919
808           1      -615.7 +j   -147.8      633.2       0.9724
808           2      -515.0 +j    -62.0      518.7       0.9928
808           3      -580.9 +j    -15.4      581.1       0.9996
   TERMINAL TOTAL . -1711.7 +j   -225.2     1726.4       0.9915

ELEMENT = "Line.L4"
808           2         8.3 +j      3.2        8.9       0.9309
   TERMINAL TOTAL .     8.3 +j      3.2        8.9       0.9309
810           2        -8.3 +j     -4.3        9.3       0.8886
   TERMINAL TOTAL .    -8.3 +j     -4.3        9.3       0.8886

ELEMENT = "Line.L5"
808           1       615.7 +j    147.8      633.2       0.9724
808           2       498.5 +j     54.5      501.5       0.9941
808           3       580.9 +j     15.4      581.1       0.9996
   TERMINAL TOTAL .  1695.2 +j    217.7     1709.1       0.9919
812           1      -600.3 +j   -146.4      617.8       0.9715
812           2      -489.9 +j    -57.0      493.2       0.9933
812           3      -568.7 +j    -15.2      568.9       0.9996
   TERMINAL TOTAL . -1658.9 +j   -218.6     1673.2       0.9914

ELEMENT = "Line.L6"
812           1       600.3 +j    146.4      617.8       0.9715
812           2       489.9 +j     57.0      493.2       0.9933
812           3       568.7 +j     15.2      568.9       0.9996
   TERMINAL TOTAL .  1658.9 +j    218.6     1673.2       0.9914
814           1      -587.9 +j   -144.8      605.4       0.9710
814           2      -483.1 +j    -58.7      486.6       0.9927
814           3      -559.0 +j    -14.8      559.2       0.9996
   TERMINAL TOTAL . -1630.0 +j   -218.3     1644.5       0.9912

ELEMENT = "Line.L7"
814R          1       587.8 +j    144.6      605.3       0.9711
814R          2       483.0 +j     58.6      486.6       0.9927
814R          3       559.0 +j     14.7      559.1       0.9997
   TERMINAL TOTAL .  1629.8 +j    217.8     1644.3       0.9912
850           1      -587.8 +j   -144.6      605.3       0.9711
850           2      -483.0 +j    -58.6      486.6       0.9927
850           3      -559.0 +j    -14.7      559.1       0.9997
   TERMINAL TOTAL . -1629.8 +j   -217.8     1644.2       0.9912

ELEMENT = "Line.L8"
816           1       123.5 +j     78.7      146.4       0.8433
   TERMINAL TOTAL .   123.5 +j     78.7      146.4       0.8433
818           1      -123.4 +j    -78.9      146.5       0.8424
   TERMINAL TOTAL .  -123.4 +j    -78.9      146.5       0.8424

ELEMENT = "Line.L9"
816           1       464.1 +j     65.9      468.8       0.9901
816           2       529.5 +j     58.2      532.7       0.9940
816           3       558.8 +j     14.7      559.0       0.9997
   TERMINAL TOTAL .  1552.4 +j    138.7     1558.6       0.9960
824           1      -460.9 +j    -67.2      465.8       0.9895
824           2      -524.8 +j    -58.4      528.1       0.9939
824           3      -554.3 +j    -14.3      554.5       0.9997
   TERMINAL TOTAL . -1540.1 +j   -139.8     1546.4       0.9959

ELEMENT = "Line.L10"
818           1       155.6 +j     70.1      170.7       0.9119
   TERMINAL TOTAL .   155.6 +j     70.1      170.7       0.9119
820           1      -152.1 +j    -76.3      170.2       0.8938
   TERMINAL TOTAL .  -152.1 +j    -76.3      170.2       0.8938

ELEMENT = "Line.L11"
820           1        67.7 +j     32.9       75.2       0.8997
   TERMINAL TOTAL .    67.7 +j     32.9       75.2       0.8997
822           1       -67.5 +j    -35.0       76.0       0.8878
   TERMINAL TOTAL .   -67.5 +j    -35.0       76.0       0.8878

ELEMENT = "Line.L12"
824           2        20.2 +j      9.6       22.4       0.9034
   TERMINAL TOTAL .    20.2 +j      9.6       22.4       0.9034
826           2       -20.2 +j    -10.1       22.6       0.8944
   TERMINAL TOTAL .   -20.2 +j    -10.1       22.6       0.8944

ELEMENT = "Line.L13"
824           1       460.9 +j     67.2      465.8       0.9895
824           2       483.4 +j     38.3      485.0       0.9969
824           3       552.3 +j     13.3      552.5       0.9997
   TERMINAL TOTAL .  1496.7 +j    118.7     1501.4       0.9969
828           1      -460.6 +j    -67.3      465.5       0.9895
828           2      -483.1 +j    -38.3      484.6       0.9969
828           3      -552.0 +j    -13.2      552.1       0.9997
   TERMINAL TOTAL . -1495.7 +j   -118.8     1500.4       0.9969

ELEMENT = "Line.L14"
828           1       457.1 +j     65.8      461.8       0.9898
828           2       483.1 +j     38.3      484.6       0.9969
828           3       550.0 +j     12.2      550.1       0.9998
   TERMINAL TOTAL .  1490.2 +j    116.3     1494.8       0.9970
830           1      -450.8 +j    -68.1      455.9       0.9888
830           2      -475.3 +j    -39.5      476.9       0.9966
830           3      -540.9 +j    -11.4      541.1       0.9998
   TERMINAL TOTAL . -1467.0 +j   -119.0     1471.8       0.9967

ELEMENT = "Line.L15"
830           1       482.3 +j     59.9      486.0       0.9924
830           2       460.5 +j     32.9      461.6       0.9975
830           3       526.0 +j      4.8      526.0       1.0000
   TERMINAL TOTAL .  1468.8 +j     97.6     1472.0       0.9978
854           1      -482.1 +j    -60.0      485.9       0.9923
854           2      -460.3 +j    -32.9      461.4       0.9975
854           3      -525.8 +j     -4.8      525.8       1.0000
   TERMINAL TOTAL . -1468.2 +j    -97.7     1471.5       0.9978

ELEMENT = "Line.L16"
832           1       314.8 +j    -24.0      315.7      -0.9971
832           2       290.9 +j    -47.8      294.8      -0.9868
832           3       355.1 +j    -79.6      363.9      -0.9758
   TERMINAL TOTAL .   960.8 +j   -151.4      972.7      -0.9878
858           1      -314.2 +j     23.0      315.1      -0.9973
858           2      -290.1 +j     46.9      293.9      -0.9872
858           3      -354.2 +j     79.0      362.9      -0.9760
   TERMINAL TOTAL .  -958.6 +j    148.9      970.1      -0.9882

ELEMENT = "Line.L17"
834           1       101.5 +j     75.4      126.5       0.8025
834           2       106.0 +j     64.5      124.1       0.8542
834           3       110.3 +j     41.4      117.8       0.9361
   TERMINAL TOTAL .   317.8 +j    181.4      365.9       0.8684
860           1      -101.5 +j    -76.0      126.8       0.8005
860           2      -105.9 +j    -65.0      124.3       0.8523
860           3      -110.3 +j    -41.9      117.9       0.9348
   TERMINAL TOTAL .  -317.6 +j   -182.9      366.5       0.8666

ELEMENT = "Line.L18"
834           1       175.5 +j   -137.6      223.0      -0.7871
834           2       161.8 +j   -116.6      199.4      -0.8113
834           3       186.1 +j   -131.1      227.7      -0.8177
   TERMINAL TOTAL .   523.5 +j   -385.2      649.9      -0.8054
842           1      -175.5 +j    137.5      223.0      -0.7872
842           2      -161.8 +j    116.5      199.4      -0.8114
842           3      -186.1 +j    131.0      227.6      -0.8178
   TERMINAL TOTAL .  -523.4 +j    385.0      649.8      -0.8055

ELEMENT = "Line.L19"
836           1        15.4 +j      6.7       16.8       0.9160
836           2        19.9 +j     11.6       23.1       0.8642
836           3        13.5 +j     13.2       18.8       0.7146
   TERMINAL TOTAL .    48.8 +j     31.5       58.1       0.8399
840           1       -15.4 +j     -7.0       16.9       0.9111
840           2       -19.9 +j    -11.8       23.1       0.8598
840           3       -13.5 +j    -13.4       19.0       0.7096
   TERMINAL TOTAL .   -48.8 +j    -32.2       58.4       0.8348

ELEMENT = "Line.L20"
836           1        -0.0 +j     -0.1        0.1       0.0634
836           2        28.0 +j     13.1       30.9       0.9064
836           3        -0.0 +j     -0.1        0.1       0.0589
   TERMINAL TOTAL .    28.0 +j     12.9       30.8       0.9081
862           1         0.0 +j      0.0        0.0       1.0000
862           2       -28.0 +j    -13.1       30.9       0.9055
862           3         0.0 +j      0.0        0.0       1.0000
   TERMINAL TOTAL .   -28.0 +j    -13.1       30.9       0.9055

ELEMENT = "Line.L21"
842           1       171.0 +j   -140.0      221.0      -0.7738
842           2       161.8 +j   -116.5      199.4      -0.8114
842           3       186.1 +j   -131.0      227.6      -0.8178
   TERMINAL TOTAL .   518.9 +j   -387.5      647.6      -0.8012
844           1      -170.9 +j    139.7      220.8      -0.7743
844           2      -161.6 +j    116.2      199.1      -0.8119
844           3      -186.0 +j    130.7      227.4      -0.8182
   TERMINAL TOTAL .  -518.6 +j    386.7      646.9      -0.8017

ELEMENT = "Line.L22"
844           1        19.9 +j   -147.6      149.0      -0.1339
844           2        55.6 +j   -127.6      139.1      -0.3995
844           3        30.3 +j   -141.6      144.9      -0.2095
   TERMINAL TOTAL .   105.9 +j   -416.8      430.0      -0.2462
846           1       -19.9 +j    146.7      148.0      -0.1344
846           2       -55.4 +j    126.7      138.3      -0.4005
846           3       -30.3 +j    140.9      144.1      -0.2101
   TERMINAL TOTAL .  -105.5 +j    414.3      427.5      -0.2469

ELEMENT = "Line.L23"
846           1        19.9 +j   -146.7      148.0      -0.1344
846           2        31.4 +j   -138.2      141.7      -0.2214
846           3        20.3 +j   -146.4      147.8      -0.1372
   TERMINAL TOTAL .    71.5 +j   -431.3      437.1      -0.1637
848           1       -19.9 +j    146.6      147.9      -0.1345
848           2       -31.3 +j    138.1      141.6      -0.2214
848           3       -20.3 +j    146.3      147.6      -0.1373
   TERMINAL TOTAL .   -71.5 +j    430.9      436.8      -0.1637

ELEMENT = "Line.L24"
850           1       587.8 +j    144.6      605.3       0.9711
850           2       530.5 +j     58.6      533.8       0.9940
850           3       559.0 +j     14.7      559.1       0.9997
   TERMINAL TOTAL .  1677.3 +j    217.8     1691.3       0.9917
816           1      -587.6 +j   -144.6      605.1       0.9710
816           2      -530.4 +j    -58.6      533.6       0.9940
816           3      -558.8 +j    -14.7      559.0       0.9997
   TERMINAL TOTAL . -1676.8 +j   -217.8     1690.9       0.9917

ELEMENT = "Line.L25"
852R          1       468.9 +j     62.3      473.0       0.9913
852R          2       443.7 +j     37.0      445.2       0.9965
852R          3       509.9 +j      3.7      510.0       1.0000
   TERMINAL TOTAL .  1422.5 +j    103.0     1426.3       0.9974
832           1      -468.9 +j    -62.3      473.0       0.9913
832           2      -443.7 +j    -37.0      445.2       0.9965
832           3      -509.9 +j     -3.7      510.0       1.0000
   TERMINAL TOTAL . -1422.5 +j   -103.0     1426.2       0.9974

ELEMENT = "Transformer.XFM1"
832           1       152.8 +j     85.8      175.2       0.8720
832           2       152.5 +j     84.6      174.4       0.8744
832           3       153.8 +j     82.7      174.6       0.8806
832           0         0.0 +j      0.0        0.0       1.0000
   TERMINAL TOTAL .   459.0 +j    253.1      524.2       0.8757
888           1      -149.6 +j    -78.9      169.1       0.8845
888           2      -149.2 +j    -77.7      168.2       0.8870
888           3      -150.6 +j    -75.9      168.6       0.8930
888           0         0.0 +j      0.0        0.0       1.0000
   TERMINAL TOTAL .  -449.4 +j   -232.5      506.0       0.8882

ELEMENT = "Line.L26"
854           2         2.0 +j     -2.8        3.5      -0.5786
   TERMINAL TOTAL .     2.0 +j     -2.8        3.5      -0.5786
856           2        -2.0 +j     -1.0        2.2       0.8944
   TERMINAL TOTAL .    -2.0 +j     -1.0        2.2       0.8944

ELEMENT = "Line.L27"
854           1       482.1 +j     60.0      485.9       0.9923
854           2       456.3 +j     34.7      457.6       0.9971
854           3       525.8 +j      4.8      525.8       1.0000
   TERMINAL TOTAL .  1464.2 +j     99.5     1467.6       0.9977
852           1      -468.9 +j    -62.5      473.1       0.9912
852           2      -443.7 +j    -37.1      445.3       0.9965
852           3      -510.0 +j     -3.8      510.0       1.0000
   TERMINAL TOTAL . -1422.7 +j   -103.4     1426.4       0.9974

ELEMENT = "Line.L28"
858           1         1.0 +j      0.2        1.0       0.9791
   TERMINAL TOTAL .     1.0 +j      0.2        1.0       0.9791
864           1        -1.0 +j     -0.5        1.1       0.8944
   TERMINAL TOTAL .    -1.0 +j     -0.5        1.1       0.8944

ELEMENT = "Line.L29"
858           1       307.4 +j    -27.9      308.7      -0.9959
858           2       284.2 +j    -48.0      288.2      -0.9860
858           3       346.2 +j    -83.5      356.1      -0.9721
   TERMINAL TOTAL .   937.9 +j   -159.3      951.3      -0.9859
834           1      -306.7 +j     26.7      307.9      -0.9962
834           2      -283.4 +j     46.9      287.2      -0.9866
834           3      -345.2 +j     82.7      355.0      -0.9725
   TERMINAL TOTAL .  -935.3 +j    156.3      948.3      -0.9863

ELEMENT = "Line.L30"
860           1        38.3 +j     16.9       41.9       0.9150
860           2        67.3 +j     36.7       76.6       0.8780
860           3        33.0 +j     20.8       39.0       0.8461
   TERMINAL TOTAL .   138.6 +j     74.4      157.3       0.8812
836           1       -38.4 +j    -17.6       42.2       0.9088
836           2       -67.2 +j    -37.3       76.9       0.8742
836           3       -33.0 +j    -21.4       39.3       0.8392
   TERMINAL TOTAL .  -138.6 +j    -76.3      158.2       0.8759

ELEMENT = "Line.L31"
862           2        14.0 +j      6.1       15.3       0.9163
   TERMINAL TOTAL .    14.0 +j      6.1       15.3       0.9163
838           2       -14.0 +j     -7.0       15.7       0.8944
   TERMINAL TOTAL .   -14.0 +j     -7.0       15.7       0.8944

ELEMENT = "Line.L32"
888           1       149.6 +j     78.9      169.1       0.8845
888           2       149.2 +j     77.7      168.2       0.8870
888           3       150.6 +j     75.9      168.6       0.8930
   TERMINAL TOTAL .   449.4 +j    232.5      506.0       0.8882
890           1      -138.0 +j    -71.2      155.3       0.8886
890           2      -139.3 +j    -69.5      155.6       0.8948
890           3      -139.4 +j    -67.6      154.9       0.8997
   TERMINAL TOTAL .  -416.6 +j   -208.3      465.8       0.8944

ELEMENT = "Capacitor.C844"
844           1         0.0 +j   -108.5      108.5      -0.0000
844           2         0.0 +j   -106.3      106.3       1.0000
844           3         0.0 +j   -107.9      107.9       1.0000
   TERMINAL TOTAL .     0.0 +j   -322.8      322.8      -0.0000
844           0         0.0 +j      0.0        0.0       1.0000
844           0         0.0 +j      0.0        0.0       1.0000
844           0         0.0 +j      0.0        0.0       1.0000
   TERMINAL TOTAL .     0.0 +j      0.0        0.0       1.0000

ELEMENT = "Capacitor.C848"
848           1         0.0 +j   -162.9      162.9       1.0000
848           2         0.0 +j   -159.5      159.5      -0.0000
848           3         0.0 +j   -162.0      162.0       1.0000
   TERMINAL TOTAL .     0.0 +j   -484.4      484.4      -0.0000
848           0         0.0 +j      0.0        0.0       1.0000
848           0         0.0 +j      0.0        0.0       1.0000
848           0         0.0 +j      0.0        0.0       1.0000
   TERMINAL TOTAL .     0.0 +j      0.0        0.0       1.0000

ELEMENT = "Transformer.REG1A"
814           1       587.9 +j    144.8      605.4       0.9710
814           0         0.0 +j      0.0        0.0       1.0000
   TERMINAL TOTAL .   587.9 +j    144.8      605.4       0.9710
814R          1      -587.8 +j   -144.6      605.3       0.9711
814R          0         0.0 +j      0.0        0.0       1.0000
   TERMINAL TOTAL .  -587.8 +j   -144.6      605.3       0.9711

ELEMENT = "Transformer.REG1B"
814           2       483.1 +j     58.7      486.6       0.9927
814           0         0.0 +j      0.0        0.0       1.0000
   TERMINAL TOTAL .   483.1 +j     58.7      486.6       0.9927
814R          2      -483.0 +j    -58.6      486.6       0.9927
814R          0         0.0 +j      0.0        0.0       1.0000
   TERMINAL TOTAL .  -483.0 +j    -58.6      486.6       0.9927

ELEMENT = "Transformer.REG1C"
814           3       559.0 +j     14.8      559.2       0.9996
814           0         0.0 +j      0.0        0.0       1.0000
   TERMINAL TOTAL .   559.0 +j     14.8      559.2       0.9996
814R          3      -559.0 +j    -14.7      559.1       0.9997
814R          0         0.0 +j      0.0        0.0       1.0000
   TERMINAL TOTAL .  -559.0 +j    -14.7      559.1       0.9997

ELEMENT = "Transformer.REG2A"
852           1       468.9 +j     62.5      473.1       0.9912
852           0         0.0 +j      0.0        0.0       1.0000
   TERMINAL TOTAL .   468.9 +j     62.5      473.1       0.9912
852R          1      -468.9 +j    -62.3      473.0       0.9913
852R          0         0.0 +j      0.0        0.0       1.0000
   TERMINAL TOTAL .  -468.9 +j    -62.3      473.0       0.9913

ELEMENT = "Transformer.REG2B"
852           2       443.7 +j     37.1      445.3       0.9965
852           0         0.0 +j      0.0        0.0       1.0000
   TERMINAL TOTAL .   443.7 +j     37.1      445.3       0.9965
852R          2      -443.7 +j    -37.0      445.2       0.9965
852R          0         0.0 +j      0.0        0.0       1.0000
   TERMINAL TOTAL .  -443.7 +j    -37.0      445.2       0.9965

ELEMENT = "Transformer.REG2C"
852           3       510.0 +j      3.8      510.0       1.0000
852           0         0.0 +j      0.0        0.0       1.0000
   TERMINAL TOTAL .   510.0 +j      3.8      510.0       1.0000
852R          3      -509.9 +j     -3.7      510.0       1.0000
852R          0         0.0 +j      0.0        0.0       1.0000
   TERMINAL TOTAL .  -509.9 +j     -3.7      510.0       1.0000

= = = = = = = = = = = = = = = = = = =  = = = = = = = = = = =  = =

Power Conversion Elements

  Bus     Phase     kW   +j  kvar         kVA         PF

ELEMENT = "Load.S860"
860           1      20.0 +j   16.0       25.6       0.7809
860           2      20.0 +j   16.0       25.6       0.7809
860           3      20.0 +j   16.0       25.6       0.7809
860           0       0.0 +j    0.0        0.0       1.0000
  TERMINAL TOTAL  .    60.0 +j     48.0       76.8       0.7809

ELEMENT = "Load.S840"
840           1       9.4 +j    7.3       11.9       0.7893
840           2       9.3 +j    7.2       11.8       0.7894
840           3       9.3 +j    7.3       11.8       0.7894
840           0       0.0 +j    0.0        0.0       1.0000
  TERMINAL TOTAL  .    28.0 +j     21.8       35.5       0.7894

ELEMENT = "Load.S844"
844           1     146.5 +j  113.9      185.6       0.7893
844           2     143.6 +j  111.7      181.9       0.7894
844           3     145.7 +j  113.3      184.6       0.7894
844           0       0.0 +j    0.0        0.0       1.0000
  TERMINAL TOTAL  .   435.8 +j    338.9      552.1       0.7894

ELEMENT = "Load.S848"
848           1      19.9 +j   16.3       25.7       0.7732
848           2      19.8 +j   16.0       25.5       0.7793
848           3      20.3 +j   15.7       25.7       0.7900
  TERMINAL TOTAL  .    60.0 +j     48.0       76.8       0.7809

ELEMENT = "Load.S830"
830           1      14.9 +j    6.6       16.4       0.9138
830           2      14.9 +j    6.6       16.3       0.9138
830           3      14.9 +j    6.6       16.3       0.9138
830           0       0.0 +j    0.0        0.0       1.0000
  TERMINAL TOTAL  .    44.7 +j     19.9       48.9       0.9138

ELEMENT = "Load.S890"
890           1     138.0 +j   71.3      155.3       0.8886
890           2     139.3 +j   69.5      155.6       0.8948
890           3     139.4 +j   67.6      154.9       0.8997
  TERMINAL TOTAL  .   416.7 +j    208.3      465.8       0.8944

ELEMENT = "Load.D802_806SB"
802           2      15.0 +j    7.5       16.8       0.8944
802           0       0.0 +j    0.0        0.0       1.0000
  TERMINAL TOTAL  .    15.0 +j      7.5       16.8       0.8944

ELEMENT = "Load.D802_806RB"
806           2      15.0 +j    7.5       16.8       0.8944
806           0       0.0 +j    0.0        0.0       1.0000
  TERMINAL TOTAL  .    15.0 +j      7.5       16.8       0.8944

ELEMENT = "Load.D802_806SC"
802           3      12.5 +j    7.0       14.3       0.8725
802           0       0.0 +j    0.0        0.0       1.0000
  TERMINAL TOTAL  .    12.5 +j      7.0       14.3       0.8725

ELEMENT = "Load.D802_806RC"
806           3      12.5 +j    7.0       14.3       0.8725
806           0       0.0 +j    0.0        0.0       1.0000
  TERMINAL TOTAL  .    12.5 +j      7.0       14.3       0.8725

ELEMENT = "Load.D808_810SB"
808           2       8.3 +j    4.3        9.3       0.8886
808           0       0.0 +j    0.0        0.0       1.0000
  TERMINAL TOTAL  .     8.3 +j      4.3        9.3       0.8886

ELEMENT = "Load.D808_810RB"
810           2       8.3 +j    4.3        9.3       0.8886
810           0       0.0 +j    0.0        0.0       1.0000
  TERMINAL TOTAL  .     8.3 +j      4.3        9.3       0.8886

ELEMENT = "Load.D818_820SA"
818           1      17.7 +j    8.9       19.8       0.8944
818           0       0.0 +j    0.0        0.0       1.0000
  TERMINAL TOTAL  .    17.7 +j      8.9       19.8       0.8944

ELEMENT = "Load.D818_820RA"
820           1      16.9 +j    8.5       18.9       0.8944
820           0       0.0 +j    0.0        0.0       1.0000
  TERMINAL TOTAL  .    16.9 +j      8.5       18.9       0.8944

ELEMENT = "Load.D820_822SA"
820           1      67.5 +j   35.0       76.0       0.8878
820           0       0.0 +j    0.0        0.0       1.0000
  TERMINAL TOTAL  .    67.5 +j     35.0       76.0       0.8878

ELEMENT = "Load.D820_822RA"
822           1      67.5 +j   35.0       76.0       0.8878
822           0       0.0 +j    0.0        0.0       1.0000
  TERMINAL TOTAL  .    67.5 +j     35.0       76.0       0.8878

ELEMENT = "Load.D816_824SB"
816           2       0.9 +j    0.4        1.0       0.9285
816           0       0.0 +j    0.0        0.0       1.0000
  TERMINAL TOTAL  .     0.9 +j      0.4        1.0       0.9285

ELEMENT = "Load.D816_824RB"
824           2       0.9 +j    0.4        1.0       0.9285
824           0       0.0 +j    0.0        0.0       1.0000
  TERMINAL TOTAL  .     0.9 +j      0.4        1.0       0.9285

ELEMENT = "Load.D824_826SB"
824           2      20.2 +j   10.1       22.6       0.8944
824           0       0.0 +j    0.0        0.0       1.0000
  TERMINAL TOTAL  .    20.2 +j     10.1       22.6       0.8944

ELEMENT = "Load.D824_826RB"
826           2      20.2 +j   10.1       22.6       0.8944
826           0       0.0 +j    0.0        0.0       1.0000
  TERMINAL TOTAL  .    20.2 +j     10.1       22.6       0.8944

ELEMENT = "Load.D824_828SC"
824           3       2.0 +j    1.0        2.2       0.8944
824           0       0.0 +j    0.0        0.0       1.0000
  TERMINAL TOTAL  .     2.0 +j      1.0        2.2       0.8944

ELEMENT = "Load.D824_828RC"
828           3       2.0 +j    1.0        2.2       0.8944
828           0       0.0 +j    0.0        0.0       1.0000
  TERMINAL TOTAL  .     2.0 +j      1.0        2.2       0.8944

ELEMENT = "Load.D828_830SA"
828           1       3.5 +j    1.5        3.8       0.9191
828           0       0.0 +j    0.0        0.0       1.0000
  TERMINAL TOTAL  .     3.5 +j      1.5        3.8       0.9191

ELEMENT = "Load.D828_830RA"
830           1       3.5 +j    1.5        3.8       0.9191
830           0       0.0 +j    0.0        0.0       1.0000
  TERMINAL TOTAL  .     3.5 +j      1.5        3.8       0.9191

ELEMENT = "Load.D854_856SB"
854           2       2.0 +j    1.0        2.2       0.8944
854           0       0.0 +j    0.0        0.0       1.0000
  TERMINAL TOTAL  .     2.0 +j      1.0        2.2       0.8944

ELEMENT = "Load.D854_856RB"
856           2       2.0 +j    1.0        2.2       0.8944
856           0       0.0 +j    0.0        0.0       1.0000
  TERMINAL TOTAL  .     2.0 +j      1.0        2.2       0.8944

ELEMENT = "Load.D832_858SA"
832           1       1.3 +j    0.5        1.4       0.9191
832           0       0.0 +j    0.0        0.0       1.0000
  TERMINAL TOTAL  .     1.3 +j      0.5        1.4       0.9191

ELEMENT = "Load.D832_858RA"
858           1       1.3 +j    0.5        1.4       0.9191
858           0       0.0 +j    0.0        0.0       1.0000
  TERMINAL TOTAL  .     1.3 +j      0.5        1.4       0.9191

ELEMENT = "Load.D832_858SB"
832           2       0.4 +j    0.2        0.4       0.8944
832           0       0.0 +j    0.0        0.0       1.0000
  TERMINAL TOTAL  .     0.4 +j      0.2        0.4       0.8944

ELEMENT = "Load.D832_858RB"
858           2       0.4 +j    0.2        0.4       0.8944
858           0       0.0 +j    0.0        0.0       1.0000
  TERMINAL TOTAL  .     0.4 +j      0.2        0.4       0.8944

ELEMENT = "Load.D832_858SC"
832           3       1.1 +j    0.5        1.2       0.8944
832           0       0.0 +j    0.0        0.0       1.0000
  TERMINAL TOTAL  .     1.1 +j      0.5        1.2       0.8944

ELEMENT = "Load.D832_858RC"
858           3       1.1 +j    0.5        1.2       0.8944
858           0       0.0 +j    0.0        0.0       1.0000
  TERMINAL TOTAL  .     1.1 +j      0.5        1.2       0.8944

ELEMENT = "Load.D858_864SB"
858           1       1.0 +j    0.5        1.1       0.8944
858           0       0.0 +j    0.0        0.0       1.0000
  TERMINAL TOTAL  .     1.0 +j      0.5        1.1       0.8944

ELEMENT = "Load.D858_864RB"
864           1       1.0 +j    0.5        1.1       0.8944
864           0       0.0 +j    0.0        0.0       1.0000
  TERMINAL TOTAL  .     1.0 +j      0.5        1.1       0.8944

ELEMENT = "Load.D858_834SA"
858           1       1.3 +j   -0.1        1.3      -0.9986
858           2       0.7 +j    1.1        1.3       0.5525
  TERMINAL TOTAL  .     2.0 +j      1.0        2.2       0.8944

ELEMENT = "Load.D858_834RA"
834           1       1.3 +j   -0.1        1.3      -0.9986
834           2       0.7 +j    1.1        1.3       0.5526
  TERMINAL TOTAL  .     2.0 +j      1.0        2.2       0.8944

ELEMENT = "Load.D858_834SB"
858           2       4.9 +j   -0.1        4.9      -0.9996
858           3       2.6 +j    4.1        4.9       0.5376
  TERMINAL TOTAL  .     7.5 +j      4.0        8.5       0.8824

ELEMENT = "Load.D858_834RB"
834           2       4.9 +j   -0.1        4.9      -0.9996
834           3       2.6 +j    4.1        4.9       0.5378
  TERMINAL TOTAL  .     7.5 +j      4.0        8.5       0.8824

ELEMENT = "Load.D858_834SC"
858           3       4.3 +j   -0.2        4.3      -0.9991
858           1       2.2 +j    3.7        4.3       0.5151
  TERMINAL TOTAL  .     6.5 +j      3.5        7.4       0.8805

ELEMENT = "Load.D858_834RC"
834           3       4.3 +j   -0.2        4.3      -0.9990
834           1       2.2 +j    3.7        4.3       0.5147
  TERMINAL TOTAL  .     6.5 +j      3.5        7.4       0.8805

ELEMENT = "Load.D834_860SA"
834           1       5.6 +j   -0.3        5.6      -0.9986
834           2       3.1 +j    4.6        5.5       0.5526
  TERMINAL TOTAL  .     8.6 +j      4.3        9.7       0.8944

ELEMENT = "Load.D834_860RA"
860           1       5.6 +j   -0.3        5.6      -0.9986
860           2       3.1 +j    4.6        5.5       0.5527
  TERMINAL TOTAL  .     8.6 +j      4.3        9.7       0.8944

ELEMENT = "Load.D834_860SB"
834           2       6.9 +j   -0.4        6.9      -0.9986
834           3       3.9 +j    5.8        7.0       0.5598
  TERMINAL TOTAL  .    10.8 +j      5.4       12.1       0.8944

ELEMENT = "Load.D834_860RB"
860           2       6.9 +j   -0.4        6.9      -0.9986
860           3       3.9 +j    5.8        7.0       0.5598
  TERMINAL TOTAL  .    10.8 +j      5.4       12.1       0.8944

ELEMENT = "Load.D834_860SC"
834           3      38.0 +j   -2.8       38.1      -0.9973
834           1      20.6 +j   32.1       38.2       0.5404
  TERMINAL TOTAL  .    58.6 +j     29.3       65.5       0.8944

ELEMENT = "Load.D834_860RC"
860           3      38.0 +j   -2.8       38.1      -0.9972
860           1      20.6 +j   32.1       38.2       0.5404
  TERMINAL TOTAL  .    58.6 +j     29.3       65.5       0.8944

ELEMENT = "Load.D860_836SA"
860           1       9.7 +j   -0.5        9.7      -0.9986
860           2       5.3 +j    8.0        9.6       0.5527
  TERMINAL TOTAL  .    15.0 +j      7.5       16.8       0.8944

ELEMENT = "Load.D860_836RA"
836           1       9.7 +j   -0.5        9.7      -0.9986
836           2       5.3 +j    8.0        9.6       0.5527
  TERMINAL TOTAL  .    15.0 +j      7.5       16.8       0.8944

ELEMENT = "Load.D860_836SB"
860           2       3.3 +j    0.1        3.3       0.9997
860           3       1.7 +j    2.9        3.4       0.4946
  TERMINAL TOTAL  .     5.0 +j      3.0        5.8       0.8575

ELEMENT = "Load.D860_836RB"
836           2       3.3 +j    0.1        3.3       0.9997
836           3       1.7 +j    2.9        3.4       0.4947
  TERMINAL TOTAL  .     5.0 +j      3.0        5.8       0.8575

ELEMENT = "Load.D860_836SC"
860           3      13.8 +j   -0.8       13.8      -0.9985
860           1       7.2 +j   11.8       13.8       0.5244
  TERMINAL TOTAL  .    21.0 +j     11.0       23.7       0.8858

ELEMENT = "Load.D860_836RC"
836           3      13.8 +j   -0.8       13.8      -0.9985
836           1       7.2 +j   11.8       13.8       0.5244
  TERMINAL TOTAL  .    21.0 +j     11.0       23.7       0.8858

ELEMENT = "Load.D836_840SA"
836           1       6.0 +j   -0.3        6.0      -0.9986
836           2       3.3 +j    5.0        6.0       0.5527
  TERMINAL TOTAL  .     9.4 +j      4.7       10.5       0.8944

ELEMENT = "Load.D836_840RA"
840           1       6.0 +j   -0.3        6.0      -0.9986
840           2       3.3 +j    5.0        6.0       0.5527
  TERMINAL TOTAL  .     9.4 +j      4.7       10.5       0.8944

ELEMENT = "Load.D836_840SB"
836           2       7.3 +j   -0.4        7.3      -0.9986
836           3       4.1 +j    6.1        7.4       0.5599
  TERMINAL TOTAL  .    11.4 +j      5.7       12.8       0.8944

ELEMENT = "Load.D836_840RB"
840           2       7.3 +j   -0.4        7.3      -0.9986
840           3       4.1 +j    6.1        7.4       0.5599
  TERMINAL TOTAL  .    11.4 +j      5.7       12.8       0.8944

ELEMENT = "Load.D862_838SB"
862           2      14.0 +j    7.0       15.7       0.8944
862           0       0.0 +j    0.0        0.0       1.0000
  TERMINAL TOTAL  .    14.0 +j      7.0       15.7       0.8944

ELEMENT = "Load.D862_838RB"
838           2      14.0 +j    7.0       15.7       0.8944
838           0       0.0 +j    0.0        0.0       1.0000
  TERMINAL TOTAL  .    14.0 +j      7.0       15.7       0.8944

ELEMENT = "Load.D842_844SA"
842           1       4.5 +j    2.5        5.1       0.8742
842           0       0.0 +j    0.0        0.0       1.0000
  TERMINAL TOTAL  .     4.5 +j      2.5        5.1       0.8742

ELEMENT = "Load.D842_844RA"
844           1       4.5 +j    2.5        5.1       0.8742
844           0       0.0 +j    0.0        0.0       1.0000
  TERMINAL TOTAL  .     4.5 +j      2.5        5.1       0.8742

ELEMENT = "Load.D844_846SB"
844           2      12.5 +j    6.0       13.9       0.9015
844           0       0.0 +j    0.0        0.0       1.0000
  TERMINAL TOTAL  .    12.5 +j      6.0       13.9       0.9015

ELEMENT = "Load.D844_846RB"
846           2      12.5 +j    6.0       13.9       0.9015
846           0       0.0 +j    0.0        0.0       1.0000
  TERMINAL TOTAL  .    12.5 +j      6.0       13.9       0.9015

ELEMENT = "Load.D844_846SC"
844           3      10.0 +j    5.5       11.4       0.8762
844           0       0.0 +j    0.0        0.0       1.0000
  TERMINAL TOTAL  .    10.0 +j      5.5       11.4       0.8762

ELEMENT = "Load.D844_846RC"
846           3      10.0 +j    5.5       11.4       0.8762
846           0       0.0 +j    0.0        0.0       1.0000
  TERMINAL TOTAL  .    10.0 +j      5.5       11.4       0.8762

ELEMENT = "Load.D846_848SB"
846           2      11.5 +j    5.5       12.7       0.9021
846           0       0.0 +j    0.0        0.0       1.0000
  TERMINAL TOTAL  .    11.5 +j      5.5       12.7       0.9021

ELEMENT = "Load.D846_848RB"
848           2      11.5 +j    5.5       12.7       0.9021
848           0       0.0 +j    0.0        0.0       1.0000
  TERMINAL TOTAL  .    11.5 +j      5.5       12.7       0.9021

ELEMENT = "Generator.DER1"
850           2     -47.5 +j   -0.0       47.5       1.0000
850           0       0.0 +j    0.0        0.0       1.0000
  TERMINAL TOTAL  .   -47.5 +j     -0.0       47.5       1.0000

ELEMENT = "Generator.DER2"
818           1     -50.0 +j   -0.0       50.0       1.0000
818           0       0.0 +j    0.0        0.0       1.0000
  TERMINAL TOTAL  .   -50.0 +j     -0.0       50.0       1.0000

ELEMENT = "Generator.DER3"
830           1     -50.0 +j   -0.0       50.0       1.0000
830           0       0.0 +j    0.0        0.0       1.0000
  TERMINAL TOTAL  .   -50.0 +j     -0.0       50.0       1.0000

ELEMENT = "Generator.DER4"
844           2     -50.0 +j   -0.0       50.0       1.0000
844           0       0.0 +j    0.0        0.0       1.0000
  TERMINAL TOTAL  .   -50.0 +j     -0.0       50.0       1.0000


Total Circuit Losses =  232.5 +j    6.7
